robust-state-estimator/src/test/resources/networks/pglib_opf_case1354_pegase.xiidm
<?xml version="1.0" encoding="UTF-8"?>
<iidm:network xmlns:iidm="http://www.powsybl.org/schema/iidm/1_12" xmlns:slt="http://www.powsybl.org/schema/iidm/ext/slack_terminal/1_5" id="pglib_opf_case1354_pegase" caseDate="2024-05-10T17:22:15.512+02:00" forecastDistance="0" sourceFormat="MATPOWER" minimumValidationLevel="STEADY_STATE_HYPOTHESIS">
    <iidm:substation id="SUB-3">
        <iidm:voltageLevel id="VL-3" nominalV="220.0" lowVoltageLimit="198.0" highVoltageLimit="242.00000000000003" topologyKind="BUS_BREAKER">
            <iidm:busBreakerTopology>
                <iidm:bus id="BUS-3" v="220.0" angle="0.0"/>
            </iidm:busBreakerTopology>
            <iidm:load id="LOAD-3" loadType="UNDEFINED" p0="151.0" q0="48.8" bus="BUS-3" connectableBus="BUS-3"/>
            <iidm:shunt id="SHUNT-3" sectionCount="1" voltageRegulatorOn="false" bus="BUS-3" connectableBus="BUS-3">
                <iidm:shuntLinearModel bPerSection="9.6900826446281E-5" maximumSectionCount="1"/>
            </iidm:shunt>
        </iidm:voltageLevel>
    </iidm:substation>
    <iidm:substation id="SUB-4">
        <iidm:voltageLevel id="VL-4" nominalV="220.0" lowVoltageLimit="198.0" highVoltageLimit="242.00000000000003" topologyKind="BUS_BREAKER">
            <iidm:busBreakerTopology>
                <iidm:bus id="BUS-4" v="220.0" angle="0.0"/>
            </iidm:busBreakerTopology>
            <iidm:load id="LOAD-4" loadType="UNDEFINED" p0="171.41" q0="23.4" bus="BUS-4" connectableBus="BUS-4"/>
            <iidm:shunt id="SHUNT-4" sectionCount="1" voltageRegulatorOn="false" bus="BUS-4" connectableBus="BUS-4">
                <iidm:shuntLinearModel bPerSection="4.338842975206612E-5" maximumSectionCount="1"/>
            </iidm:shunt>
        </iidm:voltageLevel>
        <iidm:voltageLevel id="VL-5241" nominalV="380.0" lowVoltageLimit="342.0" highVoltageLimit="418.00000000000006" topologyKind="BUS_BREAKER">
            <iidm:busBreakerTopology>
                <iidm:bus id="BUS-5241" v="380.0" angle="0.0"/>
            </iidm:busBreakerTopology>
            <iidm:shunt id="SHUNT-5241" sectionCount="1" voltageRegulatorOn="false" bus="BUS-5241" connectableBus="BUS-5241">
                <iidm:shuntLinearModel bPerSection="4.91032188365651E-4" maximumSectionCount="1"/>
            </iidm:shunt>
        </iidm:voltageLevel>
        <iidm:twoWindingsTransformer id="TWT-5241-4" r="0.381392" x="19.513428" g="0.0" b="0.0" ratedU1="373.21434" ratedU2="220.0" voltageLevelId1="VL-5241" bus1="BUS-5241" connectableBus1="BUS-5241" voltageLevelId2="VL-4" bus2="BUS-4" connectableBus2="BUS-4" selectedOperationalLimitsGroupId1="DEFAULT" selectedOperationalLimitsGroupId2="DEFAULT">
            <iidm:operationalLimitsGroup1 id="DEFAULT">
                <iidm:apparentPowerLimits permanentLimit="784.0">
                    <iidm:temporaryLimit name="RateB" acceptableDuration="1200" value="784.0"/>
                    <iidm:temporaryLimit name="RateC" acceptableDuration="60" value="784.0"/>
                </iidm:apparentPowerLimits>
            </iidm:operationalLimitsGroup1>
            <iidm:operationalLimitsGroup2 id="DEFAULT">
                <iidm:apparentPowerLimits permanentLimit="784.0">
                    <iidm:temporaryLimit name="RateB" acceptableDuration="1200" value="784.0"/>
                    <iidm:temporaryLimit name="RateC" acceptableDuration="60" value="784.0"/>
                </iidm:apparentPowerLimits>
            </iidm:operationalLimitsGroup2>
        </iidm:twoWindingsTransformer>
    </iidm:substation>
    <iidm:substation id="SUB-10">
        <iidm:voltageLevel id="VL-10" nominalV="220.0" lowVoltageLimit="198.0" highVoltageLimit="242.00000000000003" topologyKind="BUS_BREAKER">
            <iidm:busBreakerTopology>
                <iidm:bus id="BUS-10" v="220.0" angle="0.0"/>
            </iidm:busBreakerTopology>
            <iidm:load id="LOAD-10" loadType="UNDEFINED" p0="134.0" q0="24.7" bus="BUS-10" connectableBus="BUS-10"/>
            <iidm:shunt id="SHUNT-10" sectionCount="1" voltageRegulatorOn="false" bus="BUS-10" connectableBus="BUS-10">
                <iidm:shuntLinearModel bPerSection="2.570247933884297E-4" maximumSectionCount="1"/>
            </iidm:shunt>
        </iidm:voltageLevel>
    </iidm:substation>
    <iidm:substation id="SUB-21">
        <iidm:voltageLevel id="VL-21" nominalV="220.0" lowVoltageLimit="198.0" highVoltageLimit="242.00000000000003" topologyKind="BUS_BREAKER">
            <iidm:busBreakerTopology>
                <iidm:bus id="BUS-21" v="220.0" angle="0.0"/>
            </iidm:busBreakerTopology>
            <iidm:load id="LOAD-21" loadType="UNDEFINED" p0="161.2" q0="39.3" bus="BUS-21" connectableBus="BUS-21"/>
            <iidm:shunt id="SHUNT-21" sectionCount="1" voltageRegulatorOn="false" bus="BUS-21" connectableBus="BUS-21">
                <iidm:shuntLinearModel bPerSection="6.345041322314049E-4" maximumSectionCount="1"/>
            </iidm:shunt>
        </iidm:voltageLevel>
    </iidm:substation>
    <iidm:substation id="SUB-22">
        <iidm:voltageLevel id="VL-22" nominalV="220.0" lowVoltageLimit="198.0" highVoltageLimit="242.00000000000003" topologyKind="BUS_BREAKER">
            <iidm:busBreakerTopology>
                <iidm:bus id="BUS-22" v="220.0" angle="0.0"/>
            </iidm:busBreakerTopology>
            <iidm:shunt id="SHUNT-22" sectionCount="1" voltageRegulatorOn="false" bus="BUS-22" connectableBus="BUS-22">
                <iidm:shuntLinearModel bPerSection="1.756198347107438E-5" maximumSectionCount="1"/>
            </iidm:shunt>
        </iidm:voltageLevel>
    </iidm:substation>
    <iidm:substation id="SUB-26">
        <iidm:voltageLevel id="VL-26" nominalV="380.0" lowVoltageLimit="342.0" highVoltageLimit="418.00000000000006" topologyKind="BUS_BREAKER">
            <iidm:busBreakerTopology>
                <iidm:bus id="BUS-26" v="380.0" angle="0.0"/>
            </iidm:busBreakerTopology>
            <iidm:load id="LOAD-26" loadType="UNDEFINED" p0="167.3" q0="54.8" bus="BUS-26" connectableBus="BUS-26"/>
            <iidm:shunt id="SHUNT-26" sectionCount="1" voltageRegulatorOn="false" bus="BUS-26" connectableBus="BUS-26">
                <iidm:shuntLinearModel bPerSection="7.655124653739614E-4" maximumSectionCount="1"/>
            </iidm:shunt>
        </iidm:voltageLevel>
    </iidm:substation>
    <iidm:substation id="SUB-29">
        <iidm:voltageLevel id="VL-29" nominalV="380.0" lowVoltageLimit="342.0" highVoltageLimit="418.00000000000006" topologyKind="BUS_BREAKER">
            <iidm:busBreakerTopology>
                <iidm:bus id="BUS-29" v="380.0" angle="0.0"/>
            </iidm:busBreakerTopology>
            <iidm:load id="LOAD-29" loadType="UNDEFINED" p0="152.9" q0="49.4" bus="BUS-29" connectableBus="BUS-29"/>
            <iidm:shunt id="SHUNT-29" sectionCount="1" voltageRegulatorOn="false" bus="BUS-29" connectableBus="BUS-29">
                <iidm:shuntLinearModel bPerSection="1.9148199445983378E-4" maximumSectionCount="1"/>
            </iidm:shunt>
        </iidm:voltageLevel>
    </iidm:substation>
    <iidm:substation id="SUB-44">
        <iidm:voltageLevel id="VL-44" nominalV="220.0" lowVoltageLimit="198.0" highVoltageLimit="242.00000000000003" topologyKind="BUS_BREAKER">
            <iidm:busBreakerTopology>
                <iidm:bus id="BUS-44" v="220.0" angle="0.0"/>
                <iidm:bus id="BUS-7148" v="220.0" angle="0.0"/>
            </iidm:busBreakerTopology>
            <iidm:shunt id="SHUNT-44" sectionCount="1" voltageRegulatorOn="false" bus="BUS-44" connectableBus="BUS-44">
                <iidm:shuntLinearModel bPerSection="1.5020661157024793E-4" maximumSectionCount="1"/>
            </iidm:shunt>
            <iidm:shunt id="SHUNT-7148" sectionCount="1" voltageRegulatorOn="false" bus="BUS-7148" connectableBus="BUS-7148">
                <iidm:shuntLinearModel bPerSection="2.2500000000000002E-4" maximumSectionCount="1"/>
            </iidm:shunt>
        </iidm:voltageLevel>
        <iidm:voltageLevel id="VL-1027" nominalV="380.0" lowVoltageLimit="342.0" highVoltageLimit="418.00000000000006" topologyKind="BUS_BREAKER">
            <iidm:busBreakerTopology>
                <iidm:bus id="BUS-1027" v="380.0" angle="0.0"/>
                <iidm:bus id="BUS-5308" v="380.0" angle="0.0"/>
            </iidm:busBreakerTopology>
            <iidm:load id="LOAD-1027" loadType="UNDEFINED" p0="-5.91" q0="-2.33" bus="BUS-1027" connectableBus="BUS-1027"/>
            <iidm:shunt id="SHUNT-1027" sectionCount="1" voltageRegulatorOn="false" bus="BUS-1027" connectableBus="BUS-1027">
                <iidm:shuntLinearModel bPerSection="2.10481959833795E-4" maximumSectionCount="1"/>
            </iidm:shunt>
            <iidm:shunt id="SHUNT-5308" sectionCount="1" voltageRegulatorOn="false" bus="BUS-5308" connectableBus="BUS-5308">
                <iidm:shuntLinearModel bPerSection="2.921887811634349E-4" maximumSectionCount="1"/>
            </iidm:shunt>
        </iidm:voltageLevel>
        <iidm:twoWindingsTransformer id="TWT-1027-44" r="0.161656" x="13.300320000000001" g="0.0" b="0.0" ratedU1="355.7446" ratedU2="220.0" voltageLevelId1="VL-1027" bus1="BUS-1027" connectableBus1="BUS-1027" voltageLevelId2="VL-44" bus2="BUS-44" connectableBus2="BUS-44" selectedOperationalLimitsGroupId1="DEFAULT" selectedOperationalLimitsGroupId2="DEFAULT">
            <iidm:operationalLimitsGroup1 id="DEFAULT">
                <iidm:apparentPowerLimits permanentLimit="591.0">
                    <iidm:temporaryLimit name="RateB" acceptableDuration="1200" value="1150.0"/>
                    <iidm:temporaryLimit name="RateC" acceptableDuration="60" value="1150.0"/>
                </iidm:apparentPowerLimits>
            </iidm:operationalLimitsGroup1>
            <iidm:operationalLimitsGroup2 id="DEFAULT">
                <iidm:apparentPowerLimits permanentLimit="591.0">
                    <iidm:temporaryLimit name="RateB" acceptableDuration="1200" value="1150.0"/>
                    <iidm:temporaryLimit name="RateC" acceptableDuration="60" value="1150.0"/>
                </iidm:apparentPowerLimits>
            </iidm:operationalLimitsGroup2>
        </iidm:twoWindingsTransformer>
        <iidm:twoWindingsTransformer id="TWT-5308-44" r="0.156332" x="13.806583999999999" g="0.0" b="0.0" ratedU1="355.7446" ratedU2="220.0" voltageLevelId1="VL-1027" bus1="BUS-5308" connectableBus1="BUS-5308" voltageLevelId2="VL-44" bus2="BUS-44" connectableBus2="BUS-44" selectedOperationalLimitsGroupId1="DEFAULT" selectedOperationalLimitsGroupId2="DEFAULT">
            <iidm:operationalLimitsGroup1 id="DEFAULT">
                <iidm:apparentPowerLimits permanentLimit="591.0">
                    <iidm:temporaryLimit name="RateB" acceptableDuration="1200" value="1108.0"/>
                    <iidm:temporaryLimit name="RateC" acceptableDuration="60" value="1108.0"/>
                </iidm:apparentPowerLimits>
            </iidm:operationalLimitsGroup1>
            <iidm:operationalLimitsGroup2 id="DEFAULT">
                <iidm:apparentPowerLimits permanentLimit="591.0">
                    <iidm:temporaryLimit name="RateB" acceptableDuration="1200" value="1108.0"/>
                    <iidm:temporaryLimit name="RateC" acceptableDuration="60" value="1108.0"/>
                </iidm:apparentPowerLimits>
            </iidm:operationalLimitsGroup2>
        </iidm:twoWindingsTransformer>
        <iidm:twoWindingsTransformer id="TWT-1027-7148" r="0.166496" x="14.358827999999999" g="0.0" b="0.0" ratedU1="355.7446" ratedU2="220.0" voltageLevelId1="VL-1027" bus1="BUS-1027" connectableBus1="BUS-1027" voltageLevelId2="VL-44" bus2="BUS-7148" connectableBus2="BUS-7148" selectedOperationalLimitsGroupId1="DEFAULT" selectedOperationalLimitsGroupId2="DEFAULT">
            <iidm:operationalLimitsGroup1 id="DEFAULT">
                <iidm:apparentPowerLimits permanentLimit="591.0">
                    <iidm:temporaryLimit name="RateB" acceptableDuration="1200" value="1065.0"/>
                    <iidm:temporaryLimit name="RateC" acceptableDuration="60" value="1065.0"/>
                </iidm:apparentPowerLimits>
            </iidm:operationalLimitsGroup1>
            <iidm:operationalLimitsGroup2 id="DEFAULT">
                <iidm:apparentPowerLimits permanentLimit="591.0">
                    <iidm:temporaryLimit name="RateB" acceptableDuration="1200" value="1065.0"/>
                    <iidm:temporaryLimit name="RateC" acceptableDuration="60" value="1065.0"/>
                </iidm:apparentPowerLimits>
            </iidm:operationalLimitsGroup2>
        </iidm:twoWindingsTransformer>
        <iidm:twoWindingsTransformer id="TWT-5308-7148" r="0.156332" x="14.827824" g="0.0" b="0.0" ratedU1="340.7612" ratedU2="220.0" voltageLevelId1="VL-1027" bus1="BUS-5308" connectableBus1="BUS-5308" voltageLevelId2="VL-44" bus2="BUS-7148" connectableBus2="BUS-7148" selectedOperationalLimitsGroupId1="DEFAULT" selectedOperationalLimitsGroupId2="DEFAULT">
            <iidm:operationalLimitsGroup1 id="DEFAULT">
                <iidm:apparentPowerLimits permanentLimit="591.0">
                    <iidm:temporaryLimit name="RateB" acceptableDuration="1200" value="1031.0"/>
                    <iidm:temporaryLimit name="RateC" acceptableDuration="60" value="1031.0"/>
                </iidm:apparentPowerLimits>
            </iidm:operationalLimitsGroup1>
            <iidm:operationalLimitsGroup2 id="DEFAULT">
                <iidm:apparentPowerLimits permanentLimit="591.0">
                    <iidm:temporaryLimit name="RateB" acceptableDuration="1200" value="1031.0"/>
                    <iidm:temporaryLimit name="RateC" acceptableDuration="60" value="1031.0"/>
                </iidm:apparentPowerLimits>
            </iidm:operationalLimitsGroup2>
        </iidm:twoWindingsTransformer>
    </iidm:substation>
    <iidm:substation id="SUB-53">
        <iidm:voltageLevel id="VL-53" nominalV="220.0" lowVoltageLimit="198.0" highVoltageLimit="242.00000000000003" topologyKind="BUS_BREAKER">
            <iidm:busBreakerTopology>
                <iidm:bus id="BUS-53" v="220.0" angle="0.0"/>
            </iidm:busBreakerTopology>
            <iidm:load id="LOAD-53" loadType="UNDEFINED" p0="48.65" q0="16.1" bus="BUS-53" connectableBus="BUS-53"/>
            <iidm:shunt id="SHUNT-53" sectionCount="1" voltageRegulatorOn="false" bus="BUS-53" connectableBus="BUS-53">
                <iidm:shuntLinearModel bPerSection="1.4752066115702477E-4" maximumSectionCount="1"/>
            </iidm:shunt>
        </iidm:voltageLevel>
    </iidm:substation>
    <iidm:substation id="SUB-58">
        <iidm:voltageLevel id="VL-58" nominalV="380.0" lowVoltageLimit="342.0" highVoltageLimit="418.00000000000006" topologyKind="BUS_BREAKER">
            <iidm:busBreakerTopology>
                <iidm:bus id="BUS-58" v="380.0" angle="0.0"/>
                <iidm:bus id="BUS-6153" v="380.0" angle="0.0"/>
            </iidm:busBreakerTopology>
            <iidm:generator id="GEN-6153" energySource="OTHER" minP="32.08" maxP="769.94" ratedS="100.0" voltageRegulatorOn="true" targetP="401.01" targetV="380.0" targetQ="-6.085" bus="BUS-6153" connectableBus="BUS-6153">
                <iidm:minMaxReactiveLimits minQ="-261.82" maxQ="249.65"/>
            </iidm:generator>
            <iidm:shunt id="SHUNT-58" sectionCount="1" voltageRegulatorOn="false" bus="BUS-58" connectableBus="BUS-58">
                <iidm:shuntLinearModel bPerSection="1.5997229916897505E-5" maximumSectionCount="1"/>
            </iidm:shunt>
        </iidm:voltageLevel>
        <iidm:voltageLevel id="VL-6807" nominalV="220.0" lowVoltageLimit="198.0" highVoltageLimit="242.00000000000003" topologyKind="BUS_BREAKER">
            <iidm:busBreakerTopology>
                <iidm:bus id="BUS-6807" v="220.0" angle="0.0"/>
            </iidm:busBreakerTopology>
            <iidm:generator id="GEN-6807" energySource="OTHER" minP="0.0" maxP="160.0" ratedS="100.0" voltageRegulatorOn="true" targetP="80.0" targetV="220.0" targetQ="27.34" bus="BUS-6807" connectableBus="BUS-6807">
                <iidm:minMaxReactiveLimits minQ="-22.46" maxQ="77.14"/>
            </iidm:generator>
        </iidm:voltageLevel>
        <iidm:twoWindingsTransformer id="TWT-6153-58" r="0.24548000000000003" x="9.803316" g="0.0" b="0.0" ratedU1="380.0" ratedU2="380.0" voltageLevelId1="VL-58" bus1="BUS-6153" connectableBus1="BUS-6153" voltageLevelId2="VL-58" bus2="BUS-58" connectableBus2="BUS-58" selectedOperationalLimitsGroupId1="DEFAULT" selectedOperationalLimitsGroupId2="DEFAULT">
            <iidm:phaseTapChanger lowTapPosition="0" tapPosition="0" regulationMode="FIXED_TAP">
                <iidm:step r="0.0" x="0.0" g="0.0" b="0.0" rho="1.0" alpha="0.086984"/>
            </iidm:phaseTapChanger>
            <iidm:operationalLimitsGroup1 id="DEFAULT">
                <iidm:apparentPowerLimits permanentLimit="1216.0">
                    <iidm:temporaryLimit name="RateB" acceptableDuration="1200" value="4652.0"/>
                    <iidm:temporaryLimit name="RateC" acceptableDuration="60" value="4652.0"/>
                </iidm:apparentPowerLimits>
            </iidm:operationalLimitsGroup1>
            <iidm:operationalLimitsGroup2 id="DEFAULT">
                <iidm:apparentPowerLimits permanentLimit="1216.0">
                    <iidm:temporaryLimit name="RateB" acceptableDuration="1200" value="4652.0"/>
                    <iidm:temporaryLimit name="RateC" acceptableDuration="60" value="4652.0"/>
                </iidm:apparentPowerLimits>
            </iidm:operationalLimitsGroup2>
        </iidm:twoWindingsTransformer>
        <iidm:twoWindingsTransformer id="TWT-6153-6807" r="0.321376" x="22.799788000000003" g="0.0" b="0.0" ratedU1="373.21434" ratedU2="220.0" voltageLevelId1="VL-58" bus1="BUS-6153" connectableBus1="BUS-6153" voltageLevelId2="VL-6807" bus2="BUS-6807" connectableBus2="BUS-6807" selectedOperationalLimitsGroupId1="DEFAULT" selectedOperationalLimitsGroupId2="DEFAULT">
            <iidm:operationalLimitsGroup1 id="DEFAULT">
                <iidm:apparentPowerLimits permanentLimit="671.0">
                    <iidm:temporaryLimit name="RateB" acceptableDuration="1200" value="671.0"/>
                    <iidm:temporaryLimit name="RateC" acceptableDuration="60" value="671.0"/>
                </iidm:apparentPowerLimits>
            </iidm:operationalLimitsGroup1>
            <iidm:operationalLimitsGroup2 id="DEFAULT">
                <iidm:apparentPowerLimits permanentLimit="671.0">
                    <iidm:temporaryLimit name="RateB" acceptableDuration="1200" value="671.0"/>
                    <iidm:temporaryLimit name="RateC" acceptableDuration="60" value="671.0"/>
                </iidm:apparentPowerLimits>
            </iidm:operationalLimitsGroup2>
        </iidm:twoWindingsTransformer>
    </iidm:substation>
    <iidm:substation id="SUB-59">
        <iidm:voltageLevel id="VL-59" nominalV="220.0" lowVoltageLimit="198.0" highVoltageLimit="242.00000000000003" topologyKind="BUS_BREAKER">
            <iidm:busBreakerTopology>
                <iidm:bus id="BUS-59" v="220.0" angle="0.0"/>
            </iidm:busBreakerTopology>
            <iidm:load id="LOAD-59" loadType="UNDEFINED" p0="119.2" q0="20.7" bus="BUS-59" connectableBus="BUS-59"/>
            <iidm:shunt id="SHUNT-59" sectionCount="1" voltageRegulatorOn="false" bus="BUS-59" connectableBus="BUS-59">
                <iidm:shuntLinearModel bPerSection="6.838842975206611E-5" maximumSectionCount="1"/>
            </iidm:shunt>
        </iidm:voltageLevel>
    </iidm:substation>
    <iidm:substation id="SUB-90">
        <iidm:voltageLevel id="VL-90" nominalV="220.0" lowVoltageLimit="198.0" highVoltageLimit="242.00000000000003" topologyKind="BUS_BREAKER">
            <iidm:busBreakerTopology>
                <iidm:bus id="BUS-90" v="220.0" angle="0.0"/>
            </iidm:busBreakerTopology>
            <iidm:load id="LOAD-90" loadType="UNDEFINED" p0="363.25" q0="115.39" bus="BUS-90" connectableBus="BUS-90"/>
            <iidm:shunt id="SHUNT-90" sectionCount="1" voltageRegulatorOn="false" bus="BUS-90" connectableBus="BUS-90">
                <iidm:shuntLinearModel bPerSection="8.161157024793389E-5" maximumSectionCount="1"/>
            </iidm:shunt>
        </iidm:voltageLevel>
    </iidm:substation>
    <iidm:substation id="SUB-96">
        <iidm:voltageLevel id="VL-96" nominalV="220.0" lowVoltageLimit="198.0" highVoltageLimit="242.00000000000003" topologyKind="BUS_BREAKER">
            <iidm:busBreakerTopology>
                <iidm:bus id="BUS-96" v="220.0" angle="0.0"/>
            </iidm:busBreakerTopology>
            <iidm:load id="LOAD-96" loadType="UNDEFINED" p0="-8.4" q0="28.66" bus="BUS-96" connectableBus="BUS-96"/>
            <iidm:shunt id="SHUNT-96" sectionCount="1" voltageRegulatorOn="false" bus="BUS-96" connectableBus="BUS-96">
                <iidm:shuntLinearModel bPerSection="7.210743801652892E-5" maximumSectionCount="1"/>
            </iidm:shunt>
        </iidm:voltageLevel>
    </iidm:substation>
    <iidm:substation id="SUB-113">
        <iidm:voltageLevel id="VL-113" nominalV="380.0" lowVoltageLimit="342.0" highVoltageLimit="418.00000000000006" topologyKind="BUS_BREAKER">
            <iidm:busBreakerTopology>
                <iidm:bus id="BUS-113" v="380.0" angle="0.0"/>
                <iidm:bus id="BUS-1876" v="380.0" angle="0.0"/>
            </iidm:busBreakerTopology>
            <iidm:shunt id="SHUNT-113" sectionCount="1" voltageRegulatorOn="false" bus="BUS-113" connectableBus="BUS-113">
                <iidm:shuntLinearModel bPerSection="4.5240380886426586E-5" maximumSectionCount="1"/>
            </iidm:shunt>
            <iidm:shunt id="SHUNT-1876" sectionCount="1" voltageRegulatorOn="false" bus="BUS-1876" connectableBus="BUS-1876">
                <iidm:shuntLinearModel bPerSection="4.3445761772853186E-5" maximumSectionCount="1"/>
            </iidm:shunt>
        </iidm:voltageLevel>
        <iidm:voltageLevel id="VL-7752" nominalV="220.0" lowVoltageLimit="198.0" highVoltageLimit="242.00000000000003" topologyKind="BUS_BREAKER">
            <iidm:busBreakerTopology>
                <iidm:bus id="BUS-7752" v="220.0" angle="0.0"/>
            </iidm:busBreakerTopology>
            <iidm:load id="LOAD-7752" loadType="UNDEFINED" p0="524.5" q0="126.0" bus="BUS-7752" connectableBus="BUS-7752"/>
            <iidm:shunt id="SHUNT-7752" sectionCount="1" voltageRegulatorOn="false" bus="BUS-7752" connectableBus="BUS-7752">
                <iidm:shuntLinearModel bPerSection="1.5392561983471073E-4" maximumSectionCount="1"/>
            </iidm:shunt>
        </iidm:voltageLevel>
        <iidm:twoWindingsTransformer id="TWT-113-7752" r="0.17182" x="11.634392" g="0.0" b="0.0" ratedU1="372.10625999999996" ratedU2="220.0" voltageLevelId1="VL-113" bus1="BUS-113" connectableBus1="BUS-113" voltageLevelId2="VL-7752" bus2="BUS-7752" connectableBus2="BUS-7752" selectedOperationalLimitsGroupId1="DEFAULT" selectedOperationalLimitsGroupId2="DEFAULT">
            <iidm:operationalLimitsGroup1 id="DEFAULT">
                <iidm:apparentPowerLimits permanentLimit="591.0">
                    <iidm:temporaryLimit name="RateB" acceptableDuration="1200" value="1314.0"/>
                    <iidm:temporaryLimit name="RateC" acceptableDuration="60" value="1314.0"/>
                </iidm:apparentPowerLimits>
            </iidm:operationalLimitsGroup1>
            <iidm:operationalLimitsGroup2 id="DEFAULT">
                <iidm:apparentPowerLimits permanentLimit="591.0">
                    <iidm:temporaryLimit name="RateB" acceptableDuration="1200" value="1314.0"/>
                    <iidm:temporaryLimit name="RateC" acceptableDuration="60" value="1314.0"/>
                </iidm:apparentPowerLimits>
            </iidm:operationalLimitsGroup2>
        </iidm:twoWindingsTransformer>
        <iidm:twoWindingsTransformer id="TWT-1876-7752" r="0.166496" x="11.917048000000001" g="0.0" b="0.0" ratedU1="372.10625999999996" ratedU2="220.0" voltageLevelId1="VL-113" bus1="BUS-1876" connectableBus1="BUS-1876" voltageLevelId2="VL-7752" bus2="BUS-7752" connectableBus2="BUS-7752" selectedOperationalLimitsGroupId1="DEFAULT" selectedOperationalLimitsGroupId2="DEFAULT">
            <iidm:operationalLimitsGroup1 id="DEFAULT">
                <iidm:apparentPowerLimits permanentLimit="591.0">
                    <iidm:temporaryLimit name="RateB" acceptableDuration="1200" value="1283.0"/>
                    <iidm:temporaryLimit name="RateC" acceptableDuration="60" value="1283.0"/>
                </iidm:apparentPowerLimits>
            </iidm:operationalLimitsGroup1>
            <iidm:operationalLimitsGroup2 id="DEFAULT">
                <iidm:apparentPowerLimits permanentLimit="591.0">
                    <iidm:temporaryLimit name="RateB" acceptableDuration="1200" value="1283.0"/>
                    <iidm:temporaryLimit name="RateC" acceptableDuration="60" value="1283.0"/>
                </iidm:apparentPowerLimits>
            </iidm:operationalLimitsGroup2>
        </iidm:twoWindingsTransformer>
    </iidm:substation>
    <iidm:substation id="SUB-115">
        <iidm:voltageLevel id="VL-115" nominalV="220.0" lowVoltageLimit="198.0" highVoltageLimit="242.00000000000003" topologyKind="BUS_BREAKER">
            <iidm:busBreakerTopology>
                <iidm:bus id="BUS-115" v="220.0" angle="0.0"/>
            </iidm:busBreakerTopology>
            <iidm:shunt id="SHUNT-115" sectionCount="1" voltageRegulatorOn="false" bus="BUS-115" connectableBus="BUS-115">
                <iidm:shuntLinearModel bPerSection="8.698347107438016E-5" maximumSectionCount="1"/>
            </iidm:shunt>
        </iidm:voltageLevel>
        <iidm:voltageLevel id="VL-1730" nominalV="380.0" lowVoltageLimit="342.0" highVoltageLimit="418.00000000000006" topologyKind="BUS_BREAKER">
            <iidm:busBreakerTopology>
                <iidm:bus id="BUS-1730" v="380.0" angle="0.0"/>
            </iidm:busBreakerTopology>
            <iidm:load id="LOAD-1730" loadType="UNDEFINED" p0="-17.18" q0="-4.35" bus="BUS-1730" connectableBus="BUS-1730"/>
            <iidm:shunt id="SHUNT-1730" sectionCount="1" voltageRegulatorOn="false" bus="BUS-1730" connectableBus="BUS-1730">
                <iidm:shuntLinearModel bPerSection="3.0761333102493076E-4" maximumSectionCount="1"/>
            </iidm:shunt>
        </iidm:voltageLevel>
        <iidm:twoWindingsTransformer id="TWT-1730-115" r="0.166496" x="14.513224" g="0.0" b="0.0" ratedU1="355.7446" ratedU2="220.0" voltageLevelId1="VL-1730" bus1="BUS-1730" connectableBus1="BUS-1730" voltageLevelId2="VL-115" bus2="BUS-115" connectableBus2="BUS-115" selectedOperationalLimitsGroupId1="DEFAULT" selectedOperationalLimitsGroupId2="DEFAULT">
            <iidm:operationalLimitsGroup1 id="DEFAULT">
                <iidm:apparentPowerLimits permanentLimit="591.0">
                    <iidm:temporaryLimit name="RateB" acceptableDuration="1200" value="1054.0"/>
                    <iidm:temporaryLimit name="RateC" acceptableDuration="60" value="1054.0"/>
                </iidm:apparentPowerLimits>
            </iidm:operationalLimitsGroup1>
            <iidm:operationalLimitsGroup2 id="DEFAULT">
                <iidm:apparentPowerLimits permanentLimit="591.0">
                    <iidm:temporaryLimit name="RateB" acceptableDuration="1200" value="1054.0"/>
                    <iidm:temporaryLimit name="RateC" acceptableDuration="60" value="1054.0"/>
                </iidm:apparentPowerLimits>
            </iidm:operationalLimitsGroup2>
        </iidm:twoWindingsTransformer>
        <iidm:twoWindingsTransformer id="TWT-1730-115-0" r="0.156332" x="14.441592" g="0.0" b="0.0" ratedU1="355.7446" ratedU2="220.0" voltageLevelId1="VL-1730" bus1="BUS-1730" connectableBus1="BUS-1730" voltageLevelId2="VL-115" bus2="BUS-115" connectableBus2="BUS-115" selectedOperationalLimitsGroupId1="DEFAULT" selectedOperationalLimitsGroupId2="DEFAULT">
            <iidm:operationalLimitsGroup1 id="DEFAULT">
                <iidm:apparentPowerLimits permanentLimit="591.0">
                    <iidm:temporaryLimit name="RateB" acceptableDuration="1200" value="1059.0"/>
                    <iidm:temporaryLimit name="RateC" acceptableDuration="60" value="1059.0"/>
                </iidm:apparentPowerLimits>
            </iidm:operationalLimitsGroup1>
            <iidm:operationalLimitsGroup2 id="DEFAULT">
                <iidm:apparentPowerLimits permanentLimit="591.0">
                    <iidm:temporaryLimit name="RateB" acceptableDuration="1200" value="1059.0"/>
                    <iidm:temporaryLimit name="RateC" acceptableDuration="60" value="1059.0"/>
                </iidm:apparentPowerLimits>
            </iidm:operationalLimitsGroup2>
        </iidm:twoWindingsTransformer>
    </iidm:substation>
    <iidm:substation id="SUB-118">
        <iidm:voltageLevel id="VL-118" nominalV="380.0" lowVoltageLimit="342.0" highVoltageLimit="418.00000000000006" topologyKind="BUS_BREAKER">
            <iidm:busBreakerTopology>
                <iidm:bus id="BUS-118" v="380.0" angle="0.0"/>
                <iidm:bus id="BUS-9203" v="380.0" angle="0.0"/>
            </iidm:busBreakerTopology>
            <iidm:load id="LOAD-118" loadType="UNDEFINED" p0="704.53" q0="-35.33" bus="BUS-118" connectableBus="BUS-118"/>
            <iidm:load id="LOAD-9203" loadType="UNDEFINED" p0="627.36" q0="-73.13" bus="BUS-9203" connectableBus="BUS-9203"/>
            <iidm:shunt id="SHUNT-118" sectionCount="1" voltageRegulatorOn="false" bus="BUS-118" connectableBus="BUS-118">
                <iidm:shuntLinearModel bPerSection="9.073984764542935E-5" maximumSectionCount="1"/>
            </iidm:shunt>
            <iidm:shunt id="SHUNT-9203" sectionCount="1" voltageRegulatorOn="false" bus="BUS-9203" connectableBus="BUS-9203">
                <iidm:shuntLinearModel bPerSection="1.882633033240997E-4" maximumSectionCount="1"/>
            </iidm:shunt>
        </iidm:voltageLevel>
        <iidm:voltageLevel id="VL-2426" nominalV="220.0" lowVoltageLimit="198.0" highVoltageLimit="242.00000000000003" topologyKind="BUS_BREAKER">
            <iidm:busBreakerTopology>
                <iidm:bus id="BUS-2426" v="220.0" angle="0.0"/>
            </iidm:busBreakerTopology>
            <iidm:generator id="GEN-2426" energySource="OTHER" minP="-57.6" maxP="100.0" ratedS="100.0" voltageRegulatorOn="true" targetP="21.2" targetV="220.0" targetQ="3.16" bus="BUS-2426" connectableBus="BUS-2426">
                <iidm:minMaxReactiveLimits minQ="-99.02" maxQ="105.34"/>
            </iidm:generator>
        </iidm:voltageLevel>
        <iidm:twoWindingsTransformer id="TWT-118-2426" r="0.17665999999999998" x="11.796048" g="0.0" b="0.0" ratedU1="372.10625999999996" ratedU2="220.0" voltageLevelId1="VL-118" bus1="BUS-118" connectableBus1="BUS-118" voltageLevelId2="VL-2426" bus2="BUS-2426" connectableBus2="BUS-2426" selectedOperationalLimitsGroupId1="DEFAULT" selectedOperationalLimitsGroupId2="DEFAULT">
            <iidm:operationalLimitsGroup1 id="DEFAULT">
                <iidm:apparentPowerLimits permanentLimit="591.0">
                    <iidm:temporaryLimit name="RateB" acceptableDuration="1200" value="1296.0"/>
                    <iidm:temporaryLimit name="RateC" acceptableDuration="60" value="1296.0"/>
                </iidm:apparentPowerLimits>
            </iidm:operationalLimitsGroup1>
            <iidm:operationalLimitsGroup2 id="DEFAULT">
                <iidm:apparentPowerLimits permanentLimit="591.0">
                    <iidm:temporaryLimit name="RateB" acceptableDuration="1200" value="1296.0"/>
                    <iidm:temporaryLimit name="RateC" acceptableDuration="60" value="1296.0"/>
                </iidm:apparentPowerLimits>
            </iidm:operationalLimitsGroup2>
        </iidm:twoWindingsTransformer>
        <iidm:twoWindingsTransformer id="TWT-9203-2426" r="0.33638" x="23.763432" g="0.0" b="0.0" ratedU1="373.21434" ratedU2="220.0" voltageLevelId1="VL-118" bus1="BUS-9203" connectableBus1="BUS-9203" voltageLevelId2="VL-2426" bus2="BUS-2426" connectableBus2="BUS-2426" selectedOperationalLimitsGroupId1="DEFAULT" selectedOperationalLimitsGroupId2="DEFAULT">
            <iidm:operationalLimitsGroup1 id="DEFAULT">
                <iidm:apparentPowerLimits permanentLimit="644.0">
                    <iidm:temporaryLimit name="RateB" acceptableDuration="1200" value="644.0"/>
                    <iidm:temporaryLimit name="RateC" acceptableDuration="60" value="644.0"/>
                </iidm:apparentPowerLimits>
            </iidm:operationalLimitsGroup1>
            <iidm:operationalLimitsGroup2 id="DEFAULT">
                <iidm:apparentPowerLimits permanentLimit="644.0">
                    <iidm:temporaryLimit name="RateB" acceptableDuration="1200" value="644.0"/>
                    <iidm:temporaryLimit name="RateC" acceptableDuration="60" value="644.0"/>
                </iidm:apparentPowerLimits>
            </iidm:operationalLimitsGroup2>
        </iidm:twoWindingsTransformer>
        <iidm:twoWindingsTransformer id="TWT-9203-2426-0" r="0.17182" x="12.048212" g="0.0" b="0.0" ratedU1="355.7446" ratedU2="220.0" voltageLevelId1="VL-118" bus1="BUS-9203" connectableBus1="BUS-9203" voltageLevelId2="VL-2426" bus2="BUS-2426" connectableBus2="BUS-2426" selectedOperationalLimitsGroupId1="DEFAULT" selectedOperationalLimitsGroupId2="DEFAULT">
            <iidm:operationalLimitsGroup1 id="DEFAULT">
                <iidm:apparentPowerLimits permanentLimit="591.0">
                    <iidm:temporaryLimit name="RateB" acceptableDuration="1200" value="1269.0"/>
                    <iidm:temporaryLimit name="RateC" acceptableDuration="60" value="1269.0"/>
                </iidm:apparentPowerLimits>
            </iidm:operationalLimitsGroup1>
            <iidm:operationalLimitsGroup2 id="DEFAULT">
                <iidm:apparentPowerLimits permanentLimit="591.0">
                    <iidm:temporaryLimit name="RateB" acceptableDuration="1200" value="1269.0"/>
                    <iidm:temporaryLimit name="RateC" acceptableDuration="60" value="1269.0"/>
                </iidm:apparentPowerLimits>
            </iidm:operationalLimitsGroup2>
        </iidm:twoWindingsTransformer>
    </iidm:substation>
    <iidm:substation id="SUB-124">
        <iidm:voltageLevel id="VL-124" nominalV="220.0" lowVoltageLimit="198.0" highVoltageLimit="242.00000000000003" topologyKind="BUS_BREAKER">
            <iidm:busBreakerTopology>
                <iidm:bus id="BUS-124" v="220.0" angle="0.0"/>
            </iidm:busBreakerTopology>
            <iidm:generator id="GEN-124" energySource="OTHER" minP="333.33" maxP="1000.0" ratedS="100.0" voltageRegulatorOn="true" targetP="666.665" targetV="220.0" targetQ="133.865" bus="BUS-124" connectableBus="BUS-124">
                <iidm:minMaxReactiveLimits minQ="-172.59" maxQ="440.32"/>
            </iidm:generator>
        </iidm:voltageLevel>
    </iidm:substation>
    <iidm:substation id="SUB-128">
        <iidm:voltageLevel id="VL-128" nominalV="220.0" lowVoltageLimit="198.0" highVoltageLimit="242.00000000000003" topologyKind="BUS_BREAKER">
            <iidm:busBreakerTopology>
                <iidm:bus id="BUS-128" v="220.0" angle="0.0"/>
            </iidm:busBreakerTopology>
            <iidm:load id="LOAD-128" loadType="UNDEFINED" p0="23.73" q0="12.7" bus="BUS-128" connectableBus="BUS-128"/>
            <iidm:shunt id="SHUNT-128" sectionCount="1" voltageRegulatorOn="false" bus="BUS-128" connectableBus="BUS-128">
                <iidm:shuntLinearModel bPerSection="1.0743801652892562E-5" maximumSectionCount="1"/>
            </iidm:shunt>
        </iidm:voltageLevel>
    </iidm:substation>
    <iidm:substation id="SUB-145">
        <iidm:voltageLevel id="VL-145" nominalV="220.0" lowVoltageLimit="198.0" highVoltageLimit="242.00000000000003" topologyKind="BUS_BREAKER">
            <iidm:busBreakerTopology>
                <iidm:bus id="BUS-145" v="220.0" angle="0.0"/>
            </iidm:busBreakerTopology>
            <iidm:load id="LOAD-145" loadType="UNDEFINED" p0="38.34" q0="5.6" bus="BUS-145" connectableBus="BUS-145"/>
            <iidm:shunt id="SHUNT-145" sectionCount="1" voltageRegulatorOn="false" bus="BUS-145" connectableBus="BUS-145">
                <iidm:shuntLinearModel bPerSection="1.5785123966942147E-4" maximumSectionCount="1"/>
            </iidm:shunt>
        </iidm:voltageLevel>
    </iidm:substation>
    <iidm:substation id="SUB-148">
        <iidm:voltageLevel id="VL-148" nominalV="220.0" lowVoltageLimit="198.0" highVoltageLimit="242.00000000000003" topologyKind="BUS_BREAKER">
            <iidm:busBreakerTopology>
                <iidm:bus id="BUS-148" v="220.0" angle="0.0"/>
            </iidm:busBreakerTopology>
            <iidm:load id="LOAD-148" loadType="UNDEFINED" p0="32.34" q0="12.0" bus="BUS-148" connectableBus="BUS-148"/>
            <iidm:shunt id="SHUNT-148" sectionCount="1" voltageRegulatorOn="false" bus="BUS-148" connectableBus="BUS-148">
                <iidm:shuntLinearModel bPerSection="1.2603305785123967E-4" maximumSectionCount="1"/>
            </iidm:shunt>
        </iidm:voltageLevel>
    </iidm:substation>
    <iidm:substation id="SUB-150">
        <iidm:voltageLevel id="VL-150" nominalV="220.0" lowVoltageLimit="198.0" highVoltageLimit="242.00000000000003" topologyKind="BUS_BREAKER">
            <iidm:busBreakerTopology>
                <iidm:bus id="BUS-150" v="220.0" angle="0.0"/>
            </iidm:busBreakerTopology>
            <iidm:generator id="GEN-150" energySource="OTHER" minP="0.0" maxP="160.0" ratedS="100.0" voltageRegulatorOn="true" targetP="80.0" targetV="220.0" targetQ="27.275" bus="BUS-150" connectableBus="BUS-150">
                <iidm:minMaxReactiveLimits minQ="-22.54" maxQ="77.09"/>
            </iidm:generator>
        </iidm:voltageLevel>
    </iidm:substation>
    <iidm:substation id="SUB-163">
        <iidm:voltageLevel id="VL-163" nominalV="220.0" lowVoltageLimit="198.0" highVoltageLimit="242.00000000000003" topologyKind="BUS_BREAKER">
            <iidm:busBreakerTopology>
                <iidm:bus id="BUS-163" v="220.0" angle="0.0"/>
            </iidm:busBreakerTopology>
            <iidm:load id="LOAD-163" loadType="UNDEFINED" p0="147.76" q0="32.73" bus="BUS-163" connectableBus="BUS-163"/>
            <iidm:shunt id="SHUNT-163" sectionCount="1" voltageRegulatorOn="false" bus="BUS-163" connectableBus="BUS-163">
                <iidm:shuntLinearModel bPerSection="1.7231404958677687E-4" maximumSectionCount="1"/>
            </iidm:shunt>
        </iidm:voltageLevel>
        <iidm:voltageLevel id="VL-4125" nominalV="380.0" lowVoltageLimit="342.0" highVoltageLimit="418.00000000000006" topologyKind="BUS_BREAKER">
            <iidm:busBreakerTopology>
                <iidm:bus id="BUS-4125" v="380.0" angle="0.0"/>
            </iidm:busBreakerTopology>
            <iidm:generator id="GEN-4125" energySource="OTHER" minP="0.0" maxP="80.0" ratedS="100.0" voltageRegulatorOn="true" targetP="40.0" targetV="380.0" targetQ="11.945" bus="BUS-4125" connectableBus="BUS-4125">
                <iidm:minMaxReactiveLimits minQ="-13.0" maxQ="36.89"/>
            </iidm:generator>
        </iidm:voltageLevel>
        <iidm:twoWindingsTransformer id="TWT-4125-163" r="0.166496" x="11.5434" g="0.0" b="0.0" ratedU1="355.7446" ratedU2="220.0" voltageLevelId1="VL-4125" bus1="BUS-4125" connectableBus1="BUS-4125" voltageLevelId2="VL-163" bus2="BUS-163" connectableBus2="BUS-163" selectedOperationalLimitsGroupId1="DEFAULT" selectedOperationalLimitsGroupId2="DEFAULT">
            <iidm:operationalLimitsGroup1 id="DEFAULT">
                <iidm:apparentPowerLimits permanentLimit="591.0">
                    <iidm:temporaryLimit name="RateB" acceptableDuration="1200" value="1325.0"/>
                    <iidm:temporaryLimit name="RateC" acceptableDuration="60" value="1325.0"/>
                </iidm:apparentPowerLimits>
            </iidm:operationalLimitsGroup1>
            <iidm:operationalLimitsGroup2 id="DEFAULT">
                <iidm:apparentPowerLimits permanentLimit="591.0">
                    <iidm:temporaryLimit name="RateB" acceptableDuration="1200" value="1325.0"/>
                    <iidm:temporaryLimit name="RateC" acceptableDuration="60" value="1325.0"/>
                </iidm:apparentPowerLimits>
            </iidm:operationalLimitsGroup2>
        </iidm:twoWindingsTransformer>
        <iidm:twoWindingsTransformer id="TWT-4125-163-0" r="0.19892400000000002" x="11.19492" g="0.0" b="0.0" ratedU1="355.7446" ratedU2="220.0" voltageLevelId1="VL-4125" bus1="BUS-4125" connectableBus1="BUS-4125" voltageLevelId2="VL-163" bus2="BUS-163" connectableBus2="BUS-163" selectedOperationalLimitsGroupId1="DEFAULT" selectedOperationalLimitsGroupId2="DEFAULT">
            <iidm:operationalLimitsGroup1 id="DEFAULT">
                <iidm:apparentPowerLimits permanentLimit="591.0">
                    <iidm:temporaryLimit name="RateB" acceptableDuration="1200" value="1366.0"/>
                    <iidm:temporaryLimit name="RateC" acceptableDuration="60" value="1366.0"/>
                </iidm:apparentPowerLimits>
            </iidm:operationalLimitsGroup1>
            <iidm:operationalLimitsGroup2 id="DEFAULT">
                <iidm:apparentPowerLimits permanentLimit="591.0">
                    <iidm:temporaryLimit name="RateB" acceptableDuration="1200" value="1366.0"/>
                    <iidm:temporaryLimit name="RateC" acceptableDuration="60" value="1366.0"/>
                </iidm:apparentPowerLimits>
            </iidm:operationalLimitsGroup2>
        </iidm:twoWindingsTransformer>
        <iidm:twoWindingsTransformer id="TWT-4125-163-1" r="0.401236" x="20.697776" g="0.0" b="0.0" ratedU1="373.21434" ratedU2="220.0" voltageLevelId1="VL-4125" bus1="BUS-4125" connectableBus1="BUS-4125" voltageLevelId2="VL-163" bus2="BUS-163" connectableBus2="BUS-163" selectedOperationalLimitsGroupId1="DEFAULT" selectedOperationalLimitsGroupId2="DEFAULT">
            <iidm:operationalLimitsGroup1 id="DEFAULT">
                <iidm:apparentPowerLimits permanentLimit="739.0">
                    <iidm:temporaryLimit name="RateB" acceptableDuration="1200" value="739.0"/>
                    <iidm:temporaryLimit name="RateC" acceptableDuration="60" value="739.0"/>
                </iidm:apparentPowerLimits>
            </iidm:operationalLimitsGroup1>
            <iidm:operationalLimitsGroup2 id="DEFAULT">
                <iidm:apparentPowerLimits permanentLimit="739.0">
                    <iidm:temporaryLimit name="RateB" acceptableDuration="1200" value="739.0"/>
                    <iidm:temporaryLimit name="RateC" acceptableDuration="60" value="739.0"/>
                </iidm:apparentPowerLimits>
            </iidm:operationalLimitsGroup2>
        </iidm:twoWindingsTransformer>
    </iidm:substation>
    <iidm:substation id="SUB-171">
        <iidm:voltageLevel id="VL-171" nominalV="220.0" lowVoltageLimit="198.0" highVoltageLimit="242.00000000000003" topologyKind="BUS_BREAKER">
            <iidm:busBreakerTopology>
                <iidm:bus id="BUS-171" v="220.0" angle="0.0"/>
            </iidm:busBreakerTopology>
            <iidm:load id="LOAD-171" loadType="UNDEFINED" p0="100.8" q0="13.2" bus="BUS-171" connectableBus="BUS-171"/>
            <iidm:shunt id="SHUNT-171" sectionCount="1" voltageRegulatorOn="false" bus="BUS-171" connectableBus="BUS-171">
                <iidm:shuntLinearModel bPerSection="1.0826446280991736E-4" maximumSectionCount="1"/>
            </iidm:shunt>
        </iidm:voltageLevel>
        <iidm:voltageLevel id="VL-8109" nominalV="380.0" lowVoltageLimit="342.0" highVoltageLimit="418.00000000000006" topologyKind="BUS_BREAKER">
            <iidm:busBreakerTopology>
                <iidm:bus id="BUS-8109" v="380.0" angle="0.0"/>
            </iidm:busBreakerTopology>
            <iidm:generator id="GEN-8109" energySource="OTHER" minP="0.0" maxP="1041.6" ratedS="100.0" voltageRegulatorOn="true" targetP="520.8" targetV="380.0" targetQ="0.0" bus="BUS-8109" connectableBus="BUS-8109">
                <iidm:minMaxReactiveLimits minQ="-99999.0" maxQ="99999.0"/>
            </iidm:generator>
        </iidm:voltageLevel>
        <iidm:twoWindingsTransformer id="TWT-8109-171" r="0.1815" x="12.702096" g="0.0" b="0.0" ratedU1="372.10625999999996" ratedU2="220.0" voltageLevelId1="VL-8109" bus1="BUS-8109" connectableBus1="BUS-8109" voltageLevelId2="VL-171" bus2="BUS-171" connectableBus2="BUS-171" selectedOperationalLimitsGroupId1="DEFAULT" selectedOperationalLimitsGroupId2="DEFAULT">
            <iidm:operationalLimitsGroup1 id="DEFAULT">
                <iidm:apparentPowerLimits permanentLimit="591.0">
                    <iidm:temporaryLimit name="RateB" acceptableDuration="1200" value="1204.0"/>
                    <iidm:temporaryLimit name="RateC" acceptableDuration="60" value="1204.0"/>
                </iidm:apparentPowerLimits>
            </iidm:operationalLimitsGroup1>
            <iidm:operationalLimitsGroup2 id="DEFAULT">
                <iidm:apparentPowerLimits permanentLimit="591.0">
                    <iidm:temporaryLimit name="RateB" acceptableDuration="1200" value="1204.0"/>
                    <iidm:temporaryLimit name="RateC" acceptableDuration="60" value="1204.0"/>
                </iidm:apparentPowerLimits>
            </iidm:operationalLimitsGroup2>
        </iidm:twoWindingsTransformer>
        <iidm:twoWindingsTransformer id="TWT-8109-171-0" r="0.1815" x="12.321188" g="0.0" b="0.0" ratedU1="372.10625999999996" ratedU2="220.0" voltageLevelId1="VL-8109" bus1="BUS-8109" connectableBus1="BUS-8109" voltageLevelId2="VL-171" bus2="BUS-171" connectableBus2="BUS-171" selectedOperationalLimitsGroupId1="DEFAULT" selectedOperationalLimitsGroupId2="DEFAULT">
            <iidm:operationalLimitsGroup1 id="DEFAULT">
                <iidm:apparentPowerLimits permanentLimit="591.0">
                    <iidm:temporaryLimit name="RateB" acceptableDuration="1200" value="1241.0"/>
                    <iidm:temporaryLimit name="RateC" acceptableDuration="60" value="1241.0"/>
                </iidm:apparentPowerLimits>
            </iidm:operationalLimitsGroup1>
            <iidm:operationalLimitsGroup2 id="DEFAULT">
                <iidm:apparentPowerLimits permanentLimit="591.0">
                    <iidm:temporaryLimit name="RateB" acceptableDuration="1200" value="1241.0"/>
                    <iidm:temporaryLimit name="RateC" acceptableDuration="60" value="1241.0"/>
                </iidm:apparentPowerLimits>
            </iidm:operationalLimitsGroup2>
        </iidm:twoWindingsTransformer>
    </iidm:substation>
    <iidm:substation id="SUB-174">
        <iidm:voltageLevel id="VL-174" nominalV="220.0" lowVoltageLimit="198.0" highVoltageLimit="242.00000000000003" topologyKind="BUS_BREAKER">
            <iidm:busBreakerTopology>
                <iidm:bus id="BUS-174" v="220.0" angle="0.0"/>
            </iidm:busBreakerTopology>
            <iidm:load id="LOAD-174" loadType="UNDEFINED" p0="370.5" q0="-17.0" bus="BUS-174" connectableBus="BUS-174"/>
            <iidm:shunt id="SHUNT-174" sectionCount="1" voltageRegulatorOn="false" bus="BUS-174" connectableBus="BUS-174">
                <iidm:shuntLinearModel bPerSection="2.047520661157025E-4" maximumSectionCount="1"/>
            </iidm:shunt>
        </iidm:voltageLevel>
    </iidm:substation>
    <iidm:substation id="SUB-184">
        <iidm:voltageLevel id="VL-184" nominalV="220.0" lowVoltageLimit="198.0" highVoltageLimit="242.00000000000003" topologyKind="BUS_BREAKER">
            <iidm:busBreakerTopology>
                <iidm:bus id="BUS-184" v="220.0" angle="0.0"/>
            </iidm:busBreakerTopology>
            <iidm:shunt id="SHUNT-184" sectionCount="1" voltageRegulatorOn="false" bus="BUS-184" connectableBus="BUS-184">
                <iidm:shuntLinearModel bPerSection="4.9999999999999996E-5" maximumSectionCount="1"/>
            </iidm:shunt>
        </iidm:voltageLevel>
    </iidm:substation>
    <iidm:substation id="SUB-188">
        <iidm:voltageLevel id="VL-188" nominalV="220.0" lowVoltageLimit="198.0" highVoltageLimit="242.00000000000003" topologyKind="BUS_BREAKER">
            <iidm:busBreakerTopology>
                <iidm:bus id="BUS-188" v="220.0" angle="0.0"/>
            </iidm:busBreakerTopology>
            <iidm:load id="LOAD-188" loadType="UNDEFINED" p0="36.84" q0="13.9" bus="BUS-188" connectableBus="BUS-188"/>
            <iidm:shunt id="SHUNT-188" sectionCount="1" voltageRegulatorOn="false" bus="BUS-188" connectableBus="BUS-188">
                <iidm:shuntLinearModel bPerSection="6.818181818181818E-5" maximumSectionCount="1"/>
            </iidm:shunt>
        </iidm:voltageLevel>
    </iidm:substation>
    <iidm:substation id="SUB-195">
        <iidm:voltageLevel id="VL-195" nominalV="220.0" lowVoltageLimit="198.0" highVoltageLimit="242.00000000000003" topologyKind="BUS_BREAKER">
            <iidm:busBreakerTopology>
                <iidm:bus id="BUS-195" v="220.0" angle="0.0"/>
            </iidm:busBreakerTopology>
            <iidm:load id="LOAD-195" loadType="UNDEFINED" p0="73.14" q0="21.55" bus="BUS-195" connectableBus="BUS-195"/>
            <iidm:shunt id="SHUNT-195" sectionCount="1" voltageRegulatorOn="false" bus="BUS-195" connectableBus="BUS-195">
                <iidm:shuntLinearModel bPerSection="1.7603305785123967E-4" maximumSectionCount="1"/>
            </iidm:shunt>
        </iidm:voltageLevel>
    </iidm:substation>
    <iidm:substation id="SUB-196">
        <iidm:voltageLevel id="VL-196" nominalV="220.0" lowVoltageLimit="198.0" highVoltageLimit="242.00000000000003" topologyKind="BUS_BREAKER">
            <iidm:busBreakerTopology>
                <iidm:bus id="BUS-196" v="220.0" angle="0.0"/>
            </iidm:busBreakerTopology>
            <iidm:shunt id="SHUNT-196" sectionCount="1" voltageRegulatorOn="false" bus="BUS-196" connectableBus="BUS-196">
                <iidm:shuntLinearModel bPerSection="2.578512396694215E-4" maximumSectionCount="1"/>
            </iidm:shunt>
        </iidm:voltageLevel>
    </iidm:substation>
    <iidm:substation id="SUB-198">
        <iidm:voltageLevel id="VL-198" nominalV="220.0" lowVoltageLimit="198.0" highVoltageLimit="242.00000000000003" topologyKind="BUS_BREAKER">
            <iidm:busBreakerTopology>
                <iidm:bus id="BUS-198" v="220.0" angle="0.0"/>
            </iidm:busBreakerTopology>
            <iidm:load id="LOAD-198" loadType="UNDEFINED" p0="39.74" q0="11.8" bus="BUS-198" connectableBus="BUS-198"/>
            <iidm:shunt id="SHUNT-198" sectionCount="1" voltageRegulatorOn="false" bus="BUS-198" connectableBus="BUS-198">
                <iidm:shuntLinearModel bPerSection="2.9752066115702478E-5" maximumSectionCount="1"/>
            </iidm:shunt>
        </iidm:voltageLevel>
    </iidm:substation>
    <iidm:substation id="SUB-207">
        <iidm:voltageLevel id="VL-207" nominalV="220.0" lowVoltageLimit="198.0" highVoltageLimit="242.00000000000003" topologyKind="BUS_BREAKER">
            <iidm:busBreakerTopology>
                <iidm:bus id="BUS-207" v="220.0" angle="0.0"/>
            </iidm:busBreakerTopology>
            <iidm:load id="LOAD-207" loadType="UNDEFINED" p0="321.98" q0="84.4" bus="BUS-207" connectableBus="BUS-207"/>
            <iidm:shunt id="SHUNT-207" sectionCount="1" voltageRegulatorOn="false" bus="BUS-207" connectableBus="BUS-207">
                <iidm:shuntLinearModel bPerSection="2.768595041322314E-5" maximumSectionCount="1"/>
            </iidm:shunt>
        </iidm:voltageLevel>
    </iidm:substation>
    <iidm:substation id="SUB-216">
        <iidm:voltageLevel id="VL-216" nominalV="220.0" lowVoltageLimit="198.0" highVoltageLimit="242.00000000000003" topologyKind="BUS_BREAKER">
            <iidm:busBreakerTopology>
                <iidm:bus id="BUS-216" v="220.0" angle="0.0"/>
            </iidm:busBreakerTopology>
            <iidm:load id="LOAD-216" loadType="UNDEFINED" p0="155.6" q0="54.7" bus="BUS-216" connectableBus="BUS-216"/>
            <iidm:shunt id="SHUNT-216" sectionCount="1" voltageRegulatorOn="false" bus="BUS-216" connectableBus="BUS-216">
                <iidm:shuntLinearModel bPerSection="4.5661157024793384E-5" maximumSectionCount="1"/>
            </iidm:shunt>
        </iidm:voltageLevel>
    </iidm:substation>
    <iidm:substation id="SUB-217">
        <iidm:voltageLevel id="VL-217" nominalV="220.0" lowVoltageLimit="198.0" highVoltageLimit="242.00000000000003" topologyKind="BUS_BREAKER">
            <iidm:busBreakerTopology>
                <iidm:bus id="BUS-217" v="220.0" angle="0.0"/>
            </iidm:busBreakerTopology>
            <iidm:load id="LOAD-217" loadType="UNDEFINED" p0="105.2" q0="0.1" bus="BUS-217" connectableBus="BUS-217"/>
            <iidm:shunt id="SHUNT-217" sectionCount="1" voltageRegulatorOn="false" bus="BUS-217" connectableBus="BUS-217">
                <iidm:shuntLinearModel bPerSection="1.5206611570247933E-4" maximumSectionCount="1"/>
            </iidm:shunt>
        </iidm:voltageLevel>
    </iidm:substation>
    <iidm:substation id="SUB-218">
        <iidm:voltageLevel id="VL-218" nominalV="220.0" lowVoltageLimit="198.0" highVoltageLimit="242.00000000000003" topologyKind="BUS_BREAKER">
            <iidm:busBreakerTopology>
                <iidm:bus id="BUS-218" v="220.0" angle="0.0"/>
            </iidm:busBreakerTopology>
            <iidm:load id="LOAD-218" loadType="UNDEFINED" p0="69.83" q0="15.12" bus="BUS-218" connectableBus="BUS-218"/>
            <iidm:shunt id="SHUNT-218" sectionCount="1" voltageRegulatorOn="false" bus="BUS-218" connectableBus="BUS-218">
                <iidm:shuntLinearModel bPerSection="4.6074380165289256E-5" maximumSectionCount="1"/>
            </iidm:shunt>
        </iidm:voltageLevel>
    </iidm:substation>
    <iidm:substation id="SUB-221">
        <iidm:voltageLevel id="VL-221" nominalV="380.0" lowVoltageLimit="342.0" highVoltageLimit="418.00000000000006" topologyKind="BUS_BREAKER">
            <iidm:busBreakerTopology>
                <iidm:bus id="BUS-221" v="380.0" angle="0.0"/>
            </iidm:busBreakerTopology>
            <iidm:generator id="GEN-221" energySource="OTHER" minP="-207.18" maxP="100.0" ratedS="100.0" voltageRegulatorOn="true" targetP="-53.59" targetV="380.0" targetQ="59.31" bus="BUS-221" connectableBus="BUS-221">
                <iidm:minMaxReactiveLimits minQ="-65.3" maxQ="183.92"/>
            </iidm:generator>
        </iidm:voltageLevel>
        <iidm:voltageLevel id="VL-1541" nominalV="220.0" lowVoltageLimit="198.0" highVoltageLimit="242.00000000000003" topologyKind="BUS_BREAKER">
            <iidm:busBreakerTopology>
                <iidm:bus id="BUS-1541" v="220.0" angle="0.0"/>
            </iidm:busBreakerTopology>
            <iidm:load id="LOAD-1541" loadType="UNDEFINED" p0="125.4" q0="45.8" bus="BUS-1541" connectableBus="BUS-1541"/>
        </iidm:voltageLevel>
        <iidm:twoWindingsTransformer id="TWT-221-1541" r="0.161656" x="12.800348" g="0.0" b="0.0" ratedU1="355.7446" ratedU2="220.0" voltageLevelId1="VL-221" bus1="BUS-221" connectableBus1="BUS-221" voltageLevelId2="VL-1541" bus2="BUS-1541" connectableBus2="BUS-1541" selectedOperationalLimitsGroupId1="DEFAULT" selectedOperationalLimitsGroupId2="DEFAULT">
            <iidm:operationalLimitsGroup1 id="DEFAULT">
                <iidm:apparentPowerLimits permanentLimit="591.0">
                    <iidm:temporaryLimit name="RateB" acceptableDuration="1200" value="1195.0"/>
                    <iidm:temporaryLimit name="RateC" acceptableDuration="60" value="1195.0"/>
                </iidm:apparentPowerLimits>
            </iidm:operationalLimitsGroup1>
            <iidm:operationalLimitsGroup2 id="DEFAULT">
                <iidm:apparentPowerLimits permanentLimit="591.0">
                    <iidm:temporaryLimit name="RateB" acceptableDuration="1200" value="1195.0"/>
                    <iidm:temporaryLimit name="RateC" acceptableDuration="60" value="1195.0"/>
                </iidm:apparentPowerLimits>
            </iidm:operationalLimitsGroup2>
        </iidm:twoWindingsTransformer>
    </iidm:substation>
    <iidm:substation id="SUB-225">
        <iidm:voltageLevel id="VL-225" nominalV="220.0" lowVoltageLimit="198.0" highVoltageLimit="242.00000000000003" topologyKind="BUS_BREAKER">
            <iidm:busBreakerTopology>
                <iidm:bus id="BUS-225" v="220.0" angle="0.0"/>
            </iidm:busBreakerTopology>
            <iidm:shunt id="SHUNT-225" sectionCount="1" voltageRegulatorOn="false" bus="BUS-225" connectableBus="BUS-225">
                <iidm:shuntLinearModel bPerSection="2.3760330578512396E-5" maximumSectionCount="1"/>
            </iidm:shunt>
        </iidm:voltageLevel>
    </iidm:substation>
    <iidm:substation id="SUB-280">
        <iidm:voltageLevel id="VL-280" nominalV="220.0" lowVoltageLimit="198.0" highVoltageLimit="242.00000000000003" topologyKind="BUS_BREAKER">
            <iidm:busBreakerTopology>
                <iidm:bus id="BUS-280" v="220.0" angle="0.0"/>
            </iidm:busBreakerTopology>
            <iidm:load id="LOAD-280" loadType="UNDEFINED" p0="119.6" q0="29.6" bus="BUS-280" connectableBus="BUS-280"/>
            <iidm:shunt id="SHUNT-280" sectionCount="1" voltageRegulatorOn="false" bus="BUS-280" connectableBus="BUS-280">
                <iidm:shuntLinearModel bPerSection="1.1033057851239669E-4" maximumSectionCount="1"/>
            </iidm:shunt>
        </iidm:voltageLevel>
        <iidm:voltageLevel id="VL-4196" nominalV="380.0" lowVoltageLimit="342.0" highVoltageLimit="418.00000000000006" topologyKind="BUS_BREAKER">
            <iidm:busBreakerTopology>
                <iidm:bus id="BUS-4196" v="380.0" angle="0.0"/>
            </iidm:busBreakerTopology>
            <iidm:load id="LOAD-4196" loadType="UNDEFINED" p0="-3.2" q0="-1.05" bus="BUS-4196" connectableBus="BUS-4196"/>
            <iidm:shunt id="SHUNT-4196" sectionCount="1" voltageRegulatorOn="false" bus="BUS-4196" connectableBus="BUS-4196">
                <iidm:shuntLinearModel bPerSection="3.3567564404432136E-4" maximumSectionCount="1"/>
            </iidm:shunt>
        </iidm:voltageLevel>
        <iidm:twoWindingsTransformer id="TWT-4196-280" r="0.381392" x="19.503263999999998" g="0.0" b="0.0" ratedU1="373.21434" ratedU2="220.0" voltageLevelId1="VL-4196" bus1="BUS-4196" connectableBus1="BUS-4196" voltageLevelId2="VL-280" bus2="BUS-280" connectableBus2="BUS-280" selectedOperationalLimitsGroupId1="DEFAULT" selectedOperationalLimitsGroupId2="DEFAULT">
            <iidm:operationalLimitsGroup1 id="DEFAULT">
                <iidm:apparentPowerLimits permanentLimit="784.0">
                    <iidm:temporaryLimit name="RateB" acceptableDuration="1200" value="784.0"/>
                    <iidm:temporaryLimit name="RateC" acceptableDuration="60" value="784.0"/>
                </iidm:apparentPowerLimits>
            </iidm:operationalLimitsGroup1>
            <iidm:operationalLimitsGroup2 id="DEFAULT">
                <iidm:apparentPowerLimits permanentLimit="784.0">
                    <iidm:temporaryLimit name="RateB" acceptableDuration="1200" value="784.0"/>
                    <iidm:temporaryLimit name="RateC" acceptableDuration="60" value="784.0"/>
                </iidm:apparentPowerLimits>
            </iidm:operationalLimitsGroup2>
        </iidm:twoWindingsTransformer>
        <iidm:twoWindingsTransformer id="TWT-4196-280-0" r="0.441408" x="19.608776000000002" g="0.0" b="0.0" ratedU1="373.21434" ratedU2="220.0" voltageLevelId1="VL-4196" bus1="BUS-4196" connectableBus1="BUS-4196" voltageLevelId2="VL-280" bus2="BUS-280" connectableBus2="BUS-280" selectedOperationalLimitsGroupId1="DEFAULT" selectedOperationalLimitsGroupId2="DEFAULT">
            <iidm:operationalLimitsGroup1 id="DEFAULT">
                <iidm:apparentPowerLimits permanentLimit="780.0">
...